Info: SIMULATION PARAMETERS:
Info: TIMESTEP               1
Info: NUMBER OF STEPS        100000
Info: STEPS PER CYCLE        20
Info: PERIODIC CELL BASIS 1  34.1775 19.7324 0
Info: PERIODIC CELL BASIS 2  0 39.4648 0
Info: PERIODIC CELL BASIS 3  0 0 75
Info: PERIODIC CELL CENTER   0 0 0
Info: WRAPPING ALL CLUSTERS AROUND PERIODIC BOUNDARIES ON OUTPUT.
Info: WRAPPING TO IMAGE NEAREST TO PERIODIC CELL CENTER.
Info: FIRST LDB TIMESTEP     100
Info: HOM BACKGROUND SCALING 1
Info: PME BACKGROUND SCALING 1
Info: MAX SELF PARTITIONS    50
Info: MAX PAIR PARTITIONS    20
Info: SELF PARTITION ATOMS   125
Info: PAIR PARTITION ATOMS   200
Info: PAIR2 PARTITION ATOMS  400
Info: MIN ATOMS PER PATCH    100
Info: VELOCITY FILE          eq1.vel
Info: CENTER OF MASS MOVING INITIALLY? NO
Info: DIELECTRIC             1
Info: EXCLUDE                SCALED ONE-FOUR
Info: 1-4 SCALE FACTOR       1
Info: DCD FILENAME           eq2.dcd
Info: DCD FREQUENCY          100
Info: DCD FIRST STEP         100
Info: DCD FILE WILL CONTAIN UNIT CELL DATA
Info: XST FILENAME           eq2.xst
Info: XST FREQUENCY          100
Info: NO VELOCITY DCD OUTPUT
Info: OUTPUT FILENAME        eq2
Info: BINARY OUTPUT FILES WILL BE USED
Info: RESTART FILENAME       eq2.restart
Info: RESTART FREQUENCY      100
Info: BINARY RESTART FILES WILL BE USED
Info: SWITCHING ACTIVE
Info: SWITCHING ON           10
Info: SWITCHING OFF          12
Info: PAIRLIST DISTANCE      14
Info: PAIRLIST SHRINK RATE   0.01
Info: PAIRLIST GROW RATE     0.01
Info: PAIRLIST TRIGGER       0.3
Info: PAIRLISTS PER CYCLE    2
Info: PAIRLISTS ENABLED
Info: MARGIN                 3
Info: HYDROGEN GROUP CUTOFF  2.5
Info: PATCH DIMENSION        19.5
Info: ENERGY OUTPUT STEPS    100
Info: CROSSTERM ENERGY INCLUDED IN DIHEDRAL
Info: TIMING OUTPUT STEPS    100
Info: HARMONIC CONSTRAINTS ACTIVE
Info: HARMONIC CONS EXP      2
Info: LANGEVIN DYNAMICS ACTIVE
Info: LANGEVIN TEMPERATURE   295
Info: LANGEVIN DAMPING COEFFICIENT IS 5 INVERSE PS
Info: LANGEVIN DYNAMICS NOT APPLIED TO HYDROGENS
Info: LANGEVIN PISTON PRESSURE CONTROL ACTIVE
Info:        TARGET PRESSURE IS 1.01325 BAR
Info:     OSCILLATION PERIOD IS 200 FS
Info:             DECAY TIME IS 200 FS
Info:     PISTON TEMPERATURE IS 295 K
Info:       PRESSURE CONTROL IS ATOM-BASED
Info:    INITIAL STRAIN RATE IS 0 0 0
Info:       CELL FLUCTUATION IS ANISOTROPIC
Info: PARTICLE MESH EWALD (PME) ACTIVE
Info: PME TOLERANCE               1e-06
Info: PME EWALD COEFFICIENT       0.257952
Info: PME INTERPOLATION ORDER     4
Info: PME GRID DIMENSIONS         48 48 64
Info: PME MAXIMUM GRID SPACING    1.5
Info: FULL ELECTROSTATIC EVALUATION FREQUENCY      4
Info: USING VERLET I (r-RESPA) MTS SCHEME.
Info: C1 SPLITTING OF LONG RANGE ELECTROSTATICS
Info: PLACING ATOMS IN PATCHES BY HYDROGEN GROUPS
Info: NONBONDED FORCES EVALUATED EVERY 2 STEPS
Info: RANDOM NUMBER SEED     1163411298
Info: USE HYDROGEN BONDS?    NO
Info: COORDINATE PDB         pore_all.pdb
Info: STRUCTURE FILE         pore_all.psf
Info: PARAMETER file: CHARMM format!
Info: PARAMETERS             cornell.prm
Info: PARAMETERS             par_silicon_ions_NEW5.inp
Info: USING ARITHMETIC MEAN TO COMBINE L-J SIGMA PARAMETERS
Info: BINARY COORDINATES     eq1.coor
Info: SUMMARY OF PARAMETERS:
Info: 96 BONDS
Info: 229 ANGLES
Info: 81 DIHEDRAL
Info: 31 IMPROPER
Info: 0 CROSSTERM
Info: 62 VDW
Info: 0 VDW_PAIRS
Info: STRUCTURE SUMMARY:
Info: 7832 ATOMS
Info: 6869 BONDS
Info: 8994 ANGLES
Info: 732 DIHEDRALS
Info: 45 IMPROPERS
Info: 0 CROSSTERMS
Info: 0 EXCLUSIONS
Info: 1771 CONSTRAINTS
Info: 23496 DEGREES OF FREEDOM
Info: 3963 HYDROGEN GROUPS
Info: TOTAL MASS = 77297.6 amu
Info: TOTAL CHARGE = -0.000154442 e
Info: REMOVING COM VELOCITY 0.0620982 -0.0325443 -0.0045365
Info: NONBONDED TABLE R-SQUARED SPACING: 0.0625
Info: NONBONDED TABLE SIZE: 769 POINTS
Info: Adjusted background load on 41 nodes.
Info: 945 of 945 computes have background load > 0.607332
Info: 945 of 945 computes have background load > 0.728799
Info: 945 of 945 computes have background load > 0.850265
Info: 945 of 945 computes have background load > 0.971732
Info: 945 of 945 computes have background load > 1.0932
Info: 945 of 945 computes have background load > 1.21466
Info: 945 of 945 computes have background load > 1.33613
Info: 810 of 945 computes have background load > 1.4576
Info: 810 of 945 computes have background load > 1.57906
Info: 810 of 945 computes have background load > 1.70053
Info: 810 of 945 computes have background load > 1.822
Info: 810 of 945 computes have background load > 1.94346
Info: 810 of 945 computes have background load > 2.06493
Info: 810 of 945 computes have background load > 2.1864
Info: 810 of 945 computes have background load > 2.30786
Info: 810 of 945 computes have background load > 2.42933
Info: 810 of 945 computes have background load > 2.5508
Info: 810 of 945 computes have background load > 2.67226
Info: 810 of 945 computes have background load > 2.79373
Info: 810 of 945 computes have background load > 2.91519
Info: 810 of 945 computes have background load > 3.03666
Info: 810 of 945 computes have background load > 3.15813
Info: 810 of 945 computes have background load > 3.27959
Info: 810 of 945 computes have background load > 3.40106
Info: 810 of 945 computes have background load > 3.52253
Info: 810 of 945 computes have background load > 3.64399
Info: 810 of 945 computes have background load > 3.76546
Info: 810 of 945 computes have background load > 3.88693
Info: 810 of 945 computes have background load > 4.00839
Info: 810 of 945 computes have background load > 4.12986
Info: 810 of 945 computes have background load > 4.25133
Info: 810 of 945 computes have background load > 4.37279
Info: 810 of 945 computes have background load > 4.49426
Info: 810 of 945 computes have background load > 4.61573
Info: 810 of 945 computes have background load > 4.73719
Info: 810 of 945 computes have background load > 4.85866
Info: 810 of 945 computes have background load > 4.98012
Info: 810 of 945 computes have background load > 5.10159
Info: 810 of 945 computes have background load > 5.22306
Info: 810 of 945 computes have background load > 5.34452
Info: 810 of 945 computes have background load > 5.46599
Info: 495 of 945 computes have background load > 5.58746
Info: 495 of 945 computes have background load > 5.70892
Info: 495 of 945 computes have background load > 5.83039
Info: 495 of 945 computes have background load > 5.95186
Info: 495 of 945 computes have background load > 6.07332
ETITLE: TS BOND ANGLE DIHED IMPRP ELECT VDW BOUNDARY MISC KINETIC TOTAL TEMP TOTAL2 TOTAL3 TEMPAVG PRESSURE GPRESSURE VOLUME PRESSAVG GPRESSAVG
ENERGY: 0 2131.0607 948.5989 161.1011 4.5515 -238052.4177 3961.1178 680.1543 0.0000 6940.6667 -223225.1667 297.3019 -223124.2139 -223124.2139 297.3019 -11480.2971 -13174.2362 101160.6151 -11480.2971 -13174.2362
ENERGY: 1600 2624.9492 989.5333 151.6136 3.3546 -245904.3388 5419.3443 1037.0413 0.0000 7172.3454 -228506.1570 307.2258 -228409.8895 -228403.1739 307.0166 2317.9845 903.1575 92724.8552 -61.8854 -59.4906
ENERGY: 3200 2650.3480 999.9629 142.7351 3.8167 -246812.0472 5465.9582 1063.1998 0.0000 7016.7516 -229469.2749 300.5610 -229370.1761 -229364.0887 300.9640 2233.2009 802.5979 89160.5833 -31.3775 -19.3688
ENERGY: 4800 2636.8635 1030.8372 141.7804 4.8012 -247029.5731 5335.9318 1022.3040 0.0000 6883.3236 -229973.7315 294.8456 -229870.6440 -229871.4468 297.3140 858.4132 -1107.4053 87373.1417 85.3577 101.9709
ENERGY: 6400 2621.6901 985.8904 150.8820 4.7592 -247083.3256 5367.7688 1043.6554 0.0000 6901.4252 -230007.2546 295.6210 -229903.2067 -229908.9044 297.5156 2972.0765 392.2711 86306.4418 -40.7333 -42.1790
ENERGY: 8000 2634.9534 986.4158 138.6030 2.2978 -247281.5055 5325.5426 1039.2945 0.0000 6928.0384 -230226.3600 296.7609 -230124.0955 -230122.9325 296.6506 1671.9005 -348.4646 84690.2773 -60.3144 -62.3468
