Info: SIMULATION PARAMETERS:
Info: TIMESTEP               1
Info: NUMBER OF STEPS        100000
Info: STEPS PER CYCLE        20
Info: PERIODIC CELL BASIS 1  33.2575 19.1751 0
Info: PERIODIC CELL BASIS 2  0 38.3502 0
Info: PERIODIC CELL BASIS 3  0 0 50.5552
Info: PERIODIC CELL CENTER   0 0 0
Info: WRAPPING ALL CLUSTERS AROUND PERIODIC BOUNDARIES ON OUTPUT.
Info: WRAPPING TO IMAGE NEAREST TO PERIODIC CELL CENTER.
Info: FIRST LDB TIMESTEP     100
Info: HOM BACKGROUND SCALING 1
Info: PME BACKGROUND SCALING 1
Info: MAX SELF PARTITIONS    50
Info: MAX PAIR PARTITIONS    20
Info: SELF PARTITION ATOMS   125
Info: PAIR PARTITION ATOMS   200
Info: PAIR2 PARTITION ATOMS  400
Info: MIN ATOMS PER PATCH    100
Info: VELOCITY FILE          eq2.restart.vel
Info: CENTER OF MASS MOVING INITIALLY? NO
Info: DIELECTRIC             1
Info: EXCLUDE                SCALED ONE-FOUR
Info: 1-4 SCALE FACTOR       1
Info: DCD FILENAME           eq3.dcd
Info: DCD FREQUENCY          1000
Info: DCD FIRST STEP         1000
Info: DCD FILE WILL CONTAIN UNIT CELL DATA
Info: XST FILENAME           eq3.xst
Info: XST FREQUENCY          1000
Info: NO VELOCITY DCD OUTPUT
Info: OUTPUT FILENAME        eq3
Info: BINARY OUTPUT FILES WILL BE USED
Info: RESTART FILENAME       eq3.restart
Info: RESTART FREQUENCY      1000
Info: BINARY RESTART FILES WILL BE USED
Info: SWITCHING ACTIVE
Info: SWITCHING ON           10
Info: SWITCHING OFF          12
Info: PAIRLIST DISTANCE      14
Info: PAIRLIST SHRINK RATE   0.01
Info: PAIRLIST GROW RATE     0.01
Info: PAIRLIST TRIGGER       0.3
Info: PAIRLISTS PER CYCLE    2
Info: PAIRLISTS ENABLED
Info: MARGIN                 3
Info: HYDROGEN GROUP CUTOFF  2.5
Info: PATCH DIMENSION        19.5
Info: ENERGY OUTPUT STEPS    1000
Info: CROSSTERM ENERGY INCLUDED IN DIHEDRAL
Info: TIMING OUTPUT STEPS    1000
Info: HARMONIC CONSTRAINTS ACTIVE
Info: HARMONIC CONS EXP      2
Info: LANGEVIN DYNAMICS ACTIVE
Info: LANGEVIN TEMPERATURE   295
Info: LANGEVIN DAMPING COEFFICIENT IS 5 INVERSE PS
Info: LANGEVIN DYNAMICS NOT APPLIED TO HYDROGENS
Info: LANGEVIN PISTON PRESSURE CONTROL ACTIVE
Info:        TARGET PRESSURE IS 1.01325 BAR
Info:     OSCILLATION PERIOD IS 200 FS
Info:             DECAY TIME IS 200 FS
Info:     PISTON TEMPERATURE IS 295 K
Info:       PRESSURE CONTROL IS ATOM-BASED
Info:    INITIAL STRAIN RATE IS 0.000302079 8.73502e-05 0.000118309
Info:       CELL FLUCTUATION IS ANISOTROPIC
Info: PARTICLE MESH EWALD (PME) ACTIVE
Info: PME TOLERANCE               1e-06
Info: PME EWALD COEFFICIENT       0.257952
Info: PME INTERPOLATION ORDER     4
Info: PME GRID DIMENSIONS         48 48 64
Info: PME MAXIMUM GRID SPACING    1.5
Info: FULL ELECTROSTATIC EVALUATION FREQUENCY      4
Info: USING VERLET I (r-RESPA) MTS SCHEME.
Info: C1 SPLITTING OF LONG RANGE ELECTROSTATICS
Info: PLACING ATOMS IN PATCHES BY HYDROGEN GROUPS
Info: NONBONDED FORCES EVALUATED EVERY 2 STEPS
Info: RANDOM NUMBER SEED     1163403380
Info: USE HYDROGEN BONDS?    NO
Info: COORDINATE PDB         pore_all.pdb
Info: STRUCTURE FILE         pore_all.psf
Info: PARAMETER file: CHARMM format!
Info: PARAMETERS             cornell.prm
Info: PARAMETERS             par_silicon_ions_NEW5.inp
Info: USING ARITHMETIC MEAN TO COMBINE L-J SIGMA PARAMETERS
Info: BINARY COORDINATES     eq2.restart.coor
Info: SUMMARY OF PARAMETERS:
Info: 96 BONDS
Info: 229 ANGLES
Info: 81 DIHEDRAL
Info: 31 IMPROPER
Info: 0 CROSSTERM
Info: 62 VDW
Info: 0 VDW_PAIRS
Info: STRUCTURE SUMMARY:
Info: 5545 ATOMS
Info: 5274 BONDS
Info: 7833 ANGLES
Info: 0 DIHEDRALS
Info: 0 IMPROPERS
Info: 0 CROSSTERMS
Info: 0 EXCLUSIONS
Info: 1758 CONSTRAINTS
Info: 16635 DEGREES OF FREEDOM
Info: 3087 HYDROGEN GROUPS
Info: TOTAL MASS = 60995.4 amu
Info: TOTAL CHARGE = -0.00015521 e
Info: REMOVING COM VELOCITY 0.00068377 0.042765 0.0378741
Info: NONBONDED TABLE R-SQUARED SPACING: 0.0625
Info: NONBONDED TABLE SIZE: 769 POINTS
Info: Adjusted background load on 40 nodes.
Info: 630 of 630 computes have background load > 0.46323
Info: 630 of 630 computes have background load > 0.555876
Info: 630 of 630 computes have background load > 0.648522
Info: 630 of 630 computes have background load > 0.741168
Info: 630 of 630 computes have background load > 0.833814
Info: 630 of 630 computes have background load > 0.92646
Info: 630 of 630 computes have background load > 1.01911
Info: 630 of 630 computes have background load > 1.11175
Info: 630 of 630 computes have background load > 1.2044
Info: 630 of 630 computes have background load > 1.29704
Info: 630 of 630 computes have background load > 1.38969
Info: 630 of 630 computes have background load > 1.48234
Info: 630 of 630 computes have background load > 1.57498
Info: 630 of 630 computes have background load > 1.66763
Info: 630 of 630 computes have background load > 1.76027
Info: 630 of 630 computes have background load > 1.85292
Info: 630 of 630 computes have background load > 1.94557
Info: 630 of 630 computes have background load > 2.03821
Info: 630 of 630 computes have background load > 2.13086
Info: 630 of 630 computes have background load > 2.2235
Info: 630 of 630 computes have background load > 2.31615
Info: 630 of 630 computes have background load > 2.4088
Info: 630 of 630 computes have background load > 2.50144
Info: 630 of 630 computes have background load > 2.59409
Info: 630 of 630 computes have background load > 2.68673
Info: 630 of 630 computes have background load > 2.77938
Info: 630 of 630 computes have background load > 2.87203
Info: 630 of 630 computes have background load > 2.96467
Info: 495 of 630 computes have background load > 3.05732
Info: 495 of 630 computes have background load > 3.14996
Info: 495 of 630 computes have background load > 3.24261
Info: 495 of 630 computes have background load > 3.33526
Info: 495 of 630 computes have background load > 3.4279
Info: 495 of 630 computes have background load > 3.52055
Info: 495 of 630 computes have background load > 3.61319
Info: 495 of 630 computes have background load > 3.70584
Info: 495 of 630 computes have background load > 3.79849
Info: 495 of 630 computes have background load > 3.89113
Info: 495 of 630 computes have background load > 3.98378
Info: 495 of 630 computes have background load > 4.07642
Info: 495 of 630 computes have background load > 4.16907
Info: 495 of 630 computes have background load > 4.26172
ETITLE: TS BOND ANGLE DIHED IMPRP ELECT VDW BOUNDARY MISC KINETIC TOTAL TEMP TOTAL2 TOTAL3 TEMPAVG PRESSURE GPRESSURE VOLUME PRESSAVG GPRESSAVG
ENERGY: 0 1938.8644 556.7655 0.0000 0.0000 -230697.1751 3530.4215 976.4058 0.0000 5202.9823 -218491.7356 314.7893 -218425.8890 -218425.8890 314.7893 -1072.3089 -2817.1108 64479.7085 -1072.3089 -2817.1108
ENERGY: 2000 1930.5273 586.0746 0.0000 0.0000 -232255.4617 3969.4184 1023.9736 0.0000 4765.7987 -219979.6691 288.3389 -219914.2040 -219911.0343 301.3830 105.3556 -1791.3539 60164.3618 -28.6856 -28.9253
ENERGY: 4000 1899.1503 496.7915 0.0000 0.0000 -232868.3023 4232.8597 1033.4497 0.0000 4907.4203 -220298.6308 296.9073 -220229.1950 -220240.9614 297.0979 3236.1401 313.9189 58147.8694 17.3012 16.6874
ENERGY: 5000 1933.0679 578.0867 0.0000 0.0000 -232571.7543 3929.9656 982.0729 0.0000 4992.2295 -220156.3318 302.0384 -220090.8689 -220086.5455 297.3319 459.9446 -1843.3476 57829.5908 -13.2733 -13.3245
ENERGY: 7000 1977.0985 547.3253 0.0000 0.0000 -232889.5941 4065.6765 1036.0924 0.0000 4897.7638 -220365.6375 296.3230 -220300.5927 -220292.8269 297.0819 2420.7689 740.3431 57288.1944 17.7961 17.6768
ENERGY: 9000 1930.2879 593.7770 0.0000 0.0000 -232616.1162 3857.9458 994.5127 0.0000 4831.6348 -220407.9580 292.3221 -220341.8265 -220342.2803 295.5192 -912.8584 -2949.8263 57204.4024 -26.7382 -27.2353
