Info: SIMULATION PARAMETERS:
Info: TIMESTEP               1
Info: NUMBER OF STEPS        100000
Info: STEPS PER CYCLE        20
Info: PERIODIC CELL BASIS 1  33.2041 19.1723 0
Info: PERIODIC CELL BASIS 2  0 38.3447 0
Info: PERIODIC CELL BASIS 3  0 0 66.5175
Info: PERIODIC CELL CENTER   0 0 0
Info: WRAPPING ALL CLUSTERS AROUND PERIODIC BOUNDARIES ON OUTPUT.
Info: WRAPPING TO IMAGE NEAREST TO PERIODIC CELL CENTER.
Info: FIRST LDB TIMESTEP     100
Info: HOM BACKGROUND SCALING 1
Info: PME BACKGROUND SCALING 1
Info: MAX SELF PARTITIONS    50
Info: MAX PAIR PARTITIONS    20
Info: SELF PARTITION ATOMS   125
Info: PAIR PARTITION ATOMS   200
Info: PAIR2 PARTITION ATOMS  400
Info: MIN ATOMS PER PATCH    100
Info: VELOCITY FILE          eq2.restart.vel
Info: CENTER OF MASS MOVING INITIALLY? NO
Info: DIELECTRIC             1
Info: EXCLUDE                SCALED ONE-FOUR
Info: 1-4 SCALE FACTOR       1
Info: DCD FILENAME           eq3.dcd
Info: DCD FREQUENCY          100
Info: DCD FIRST STEP         100
Info: DCD FILE WILL CONTAIN UNIT CELL DATA
Info: XST FILENAME           eq3.xst
Info: XST FREQUENCY          100
Info: NO VELOCITY DCD OUTPUT
Info: OUTPUT FILENAME        eq3
Info: BINARY OUTPUT FILES WILL BE USED
Info: RESTART FILENAME       eq3.restart
Info: RESTART FREQUENCY      100
Info: BINARY RESTART FILES WILL BE USED
Info: SWITCHING ACTIVE
Info: SWITCHING ON           10
Info: SWITCHING OFF          12
Info: PAIRLIST DISTANCE      14
Info: PAIRLIST SHRINK RATE   0.01
Info: PAIRLIST GROW RATE     0.01
Info: PAIRLIST TRIGGER       0.3
Info: PAIRLISTS PER CYCLE    2
Info: PAIRLISTS ENABLED
Info: MARGIN                 3
Info: HYDROGEN GROUP CUTOFF  2.5
Info: PATCH DIMENSION        19.5
Info: ENERGY OUTPUT STEPS    100
Info: CROSSTERM ENERGY INCLUDED IN DIHEDRAL
Info: TIMING OUTPUT STEPS    100
Info: HARMONIC CONSTRAINTS ACTIVE
Info: HARMONIC CONS EXP      2
Info: LANGEVIN DYNAMICS ACTIVE
Info: LANGEVIN TEMPERATURE   295
Info: LANGEVIN DAMPING COEFFICIENT IS 5 INVERSE PS
Info: LANGEVIN DYNAMICS NOT APPLIED TO HYDROGENS
Info: LANGEVIN PISTON PRESSURE CONTROL ACTIVE
Info:        TARGET PRESSURE IS 1.01325 BAR
Info:     OSCILLATION PERIOD IS 200 FS
Info:             DECAY TIME IS 200 FS
Info:     PISTON TEMPERATURE IS 295 K
Info:       PRESSURE CONTROL IS ATOM-BASED
Info:    INITIAL STRAIN RATE IS -0.00011064 -8.70117e-05 6.35443e-07
Info:       CELL FLUCTUATION IS ANISOTROPIC
Info: PARTICLE MESH EWALD (PME) ACTIVE
Info: PME TOLERANCE               1e-06
Info: PME EWALD COEFFICIENT       0.257952
Info: PME INTERPOLATION ORDER     4
Info: PME GRID DIMENSIONS         48 48 64
Info: PME MAXIMUM GRID SPACING    1.5
Info: FULL ELECTROSTATIC EVALUATION FREQUENCY      4
Info: USING VERLET I (r-RESPA) MTS SCHEME.
Info: C1 SPLITTING OF LONG RANGE ELECTROSTATICS
Info: PLACING ATOMS IN PATCHES BY HYDROGEN GROUPS
Info: NONBONDED FORCES EVALUATED EVERY 2 STEPS
Info: RANDOM NUMBER SEED     1163413478
Info: USE HYDROGEN BONDS?    NO
Info: COORDINATE PDB         pore_all.pdb
Info: STRUCTURE FILE         pore_all.psf
Info: PARAMETER file: CHARMM format!
Info: PARAMETERS             cornell.prm
Info: PARAMETERS             par_silicon_ions_NEW5.inp
Info: USING ARITHMETIC MEAN TO COMBINE L-J SIGMA PARAMETERS
Info: BINARY COORDINATES     eq2.restart.coor
Info: SUMMARY OF PARAMETERS:
Info: 96 BONDS
Info: 229 ANGLES
Info: 81 DIHEDRAL
Info: 31 IMPROPER
Info: 0 CROSSTERM
Info: 62 VDW
Info: 0 VDW_PAIRS
Info: STRUCTURE SUMMARY:
Info: 7832 ATOMS
Info: 6869 BONDS
Info: 8994 ANGLES
Info: 732 DIHEDRALS
Info: 45 IMPROPERS
Info: 0 CROSSTERMS
Info: 0 EXCLUSIONS
Info: 1771 CONSTRAINTS
Info: 23496 DEGREES OF FREEDOM
Info: 3963 HYDROGEN GROUPS
Info: TOTAL MASS = 77297.6 amu
Info: TOTAL CHARGE = -0.000154442 e
Info: REMOVING COM VELOCITY 0.0422647 -0.0251362 -0.000175217
Info: NONBONDED TABLE R-SQUARED SPACING: 0.0625
Info: NONBONDED TABLE SIZE: 769 POINTS
Info: Adjusted background load on 42 nodes.
Info: 945 of 945 computes have background load > 0.662676
Info: 945 of 945 computes have background load > 0.795211
Info: 945 of 945 computes have background load > 0.927747
Info: 945 of 945 computes have background load > 1.06028
Info: 945 of 945 computes have background load > 1.19282
Info: 945 of 945 computes have background load > 1.32535
Info: 810 of 945 computes have background load > 1.45789
Info: 810 of 945 computes have background load > 1.59042
Info: 810 of 945 computes have background load > 1.72296
Info: 810 of 945 computes have background load > 1.85549
Info: 810 of 945 computes have background load > 1.98803
Info: 810 of 945 computes have background load > 2.12056
Info: 810 of 945 computes have background load > 2.2531
Info: 810 of 945 computes have background load > 2.38563
Info: 810 of 945 computes have background load > 2.51817
Info: 810 of 945 computes have background load > 2.6507
Info: 810 of 945 computes have background load > 2.78324
Info: 810 of 945 computes have background load > 2.91577
Info: 810 of 945 computes have background load > 3.04831
Info: 810 of 945 computes have background load > 3.18085
Info: 810 of 945 computes have background load > 3.31338
Info: 810 of 945 computes have background load > 3.44592
Info: 810 of 945 computes have background load > 3.57845
Info: 810 of 945 computes have background load > 3.71099
Info: 810 of 945 computes have background load > 3.84352
Info: 810 of 945 computes have background load > 3.97606
Info: 810 of 945 computes have background load > 4.10859
Info: 810 of 945 computes have background load > 4.24113
Info: 810 of 945 computes have background load > 4.37366
Info: 810 of 945 computes have background load > 4.5062
Info: 810 of 945 computes have background load > 4.63873
Info: 810 of 945 computes have background load > 4.77127
Info: 810 of 945 computes have background load > 4.9038
Info: 810 of 945 computes have background load > 5.03634
Info: 810 of 945 computes have background load > 5.16887
Info: 810 of 945 computes have background load > 5.30141
Info: 810 of 945 computes have background load > 5.43394
Info: 810 of 945 computes have background load > 5.56648
Info: 810 of 945 computes have background load > 5.69901
Info: 810 of 945 computes have background load > 5.83155
Info: 810 of 945 computes have background load > 5.96408
Info: 810 of 945 computes have background load > 6.09662
Info: 810 of 945 computes have background load > 6.22916
Info: 810 of 945 computes have background load > 6.36169
Info: 810 of 945 computes have background load > 6.49423
Info: 495 of 945 computes have background load > 6.62676
Info: 495 of 945 computes have background load > 6.7593
Info: 495 of 945 computes have background load > 6.89183
ETITLE: TS BOND ANGLE DIHED IMPRP ELECT VDW BOUNDARY MISC KINETIC TOTAL TEMP TOTAL2 TOTAL3 TEMPAVG PRESSURE GPRESSURE VOLUME PRESSAVG GPRESSAVG
ENERGY: 0 2634.9581 986.4158 138.6030 2.2978 -247281.6226 5325.6552 1039.2945 0.0000 6927.8150 -230226.5831 296.7514 -230125.8407 -230125.8407 296.7514 1669.7598 -351.1653 84690.1644 1669.7598 -351.1653
ENERGY: 1200 2631.8218 975.4882 143.3885 3.6390 -247551.4022 5540.8647 1059.6122 0.0000 6846.9623 -230349.6254 293.2881 -230248.1356 -230246.7950 294.0303 3385.8568 937.3272 84202.6185 -49.3036 -42.4332
ENERGY: 2500 2597.1244 952.8493 145.1082 6.4554 -247123.6967 5242.7710 1022.5077 0.0000 6883.6752 -230273.2053 294.8607 -230168.4174 -230180.5622 294.6691 2185.5751 -1114.3310 83713.8668 -7.2589 -12.6240
ENERGY: 3700 2652.3439 980.3416 141.0165 3.5356 -247577.9964 5406.8394 1060.3139 0.0000 6939.0325 -230394.5729 297.2319 -230290.2914 -230296.8956 296.1862 2463.9562 -290.3624 83198.5375 6.4602 3.7462
ENERGY: 5000 2678.6645 992.9656 147.8339 4.7733 -247539.2123 5330.8323 1059.4341 0.0000 6934.0298 -230390.6789 297.0176 -230289.3593 -230281.9899 295.7925 762.7988 -1074.9382 83028.1064 148.3259 172.6174
ENERGY: 6200 2629.6413 964.6770 149.9487 2.8053 -247574.1468 5353.0600 1054.3178 0.0000 6857.7697 -230561.9271 293.7510 -230458.0015 -230464.8719 292.6379 2675.1352 253.1991 82512.5211 -3.3190 -1.0195
